*SRC=MMBF170;DI_MMBF170;MOSFETs N;Enh;60.0V 0.500A 2.10ohms  Diodes Inc. MOSFET 
.MODEL DI_MMBF170  NMOS( LEVEL=1 VTO=2.10 KP=18.8m  GAMMA=2.60 
+ PHI=.75  LAMBDA=1.04m RD=0.294 RS=0.294 
+ IS=250f  PB=0.800 MJ=0.460 CBD=29.8p 
+ CBS=35.8p  CGSO=24.0n CGDO=20.0n CGBO=176n  ) 
*   -- Assumes default L=100U W=100U --